75
Lattice="9.949863435829295 5.744555301473713 0.0 0.0 11.489112150350978 0.0 0.0 -0.0 24.51687159987793" Properties=species:S:1:pos:R:3:tags:I:1 pbc="T T F"
Mo       0.00000000      11.48911215      15.45331528        1
Mo       3.06149630      12.37289001      15.45331528        1
S        1.78587284      11.04722322      17.01687160        1
S        1.78587284      11.04722322      13.88975895        1
Mo       0.76537408       3.09322250      15.45331528        1
Mo       1.53074815       6.18644500      15.45331528        1
Mo       2.29612223       9.27966751      15.45331528        1
Mo       4.59224446       7.07022286      15.45331528        1
Mo       5.35761853      10.16344536      15.45331528        1
Mo       6.12299261      13.25666787      15.45331528        1
Mo       8.41911484      11.04722322      15.45331528        1
Mo       9.18448891      14.14044572      15.45331528        1
S        0.25512469       4.86077822      17.01687160        1
S        1.02049877       7.95400072      17.01687160        1
S        3.31662100       5.74455608      17.01687160        1
S        4.08199507       8.83777858      17.01687160        1
S        4.84736915      11.93100108      17.01687160        1
S        7.14349138       9.72155643      17.01687160        1
S        7.90886545      12.81477894      17.01687160        1
S        8.67423953      15.90800144      17.01687160        1
S        0.25512469       4.86077822      13.88975895        1
S        1.02049877       7.95400072      13.88975895        1
S        3.31662100       5.74455608      13.88975895        1
S        4.08199507       8.83777858      13.88975895        1
S        4.84736915      11.93100108      13.88975895        1
S        7.14349138       9.72155643      13.88975895        1
S        7.90886545      12.81477894      13.88975895        1
S        8.67423953      15.90800144      13.88975895        1
Mo       3.82687038       3.97700036      15.45331528        1
Mo       6.88836668       4.86077822      15.45331528        1
Mo       7.65374076       7.95400072      15.45331528        1
S        2.55124692       2.65133357      17.01687160        1
S        5.61274322       3.53511143      17.01687160        1
S        6.37811730       6.62833393      17.01687160        1
S        9.43961361       7.51211179      17.01687160        1
S        2.55124692       2.65133357      13.88975895        1
S        5.61274322       3.53511143      13.88975895        1
S        6.37811730       6.62833393      13.88975895        1
S        9.43961361       7.51211179      13.88975895        1
Mo       0.00000000       0.00000000       9.16902948        0
Mo       1.65831050       2.87227804       9.16902948        0
Mo       0.00000000       5.74455608       9.16902948        0
Mo       4.97493149       2.87227804       9.16902948        0
Mo       3.31662100       5.74455608       9.16902948        0
Mo       1.65831050       8.61683411       9.16902948        0
Mo       6.63324199       5.74455608       9.16902948        0
Mo       4.97493149       8.61683411       9.16902948        0
Mo       3.31662100      11.48911215       9.16902948        0
Mo       8.29155249       8.61683411       9.16902948        0
Mo       6.63324199      11.48911215       9.16902948        0
Mo       8.29155249      14.36139019       9.16902948        0
Se       1.65831050       0.95742601      10.83805895        0
Se       0.00000000       3.82970405      10.83805895        0
Se       3.31662100       3.82970405      10.83805895        0
Se       1.65831050       6.70198209      10.83805895        0
Se       0.00000000       9.57426013      10.83805895        0
Se       6.63324199       3.82970405      10.83805895        0
Se       4.97493149       6.70198209      10.83805895        0
Se       3.31662100       9.57426013      10.83805895        0
Se       8.29155249       6.70198209      10.83805895        0
Se       6.63324199       9.57426013      10.83805895        0
Se       4.97493149      12.44653816      10.83805895        0
Se       8.29155249      12.44653816      10.83805895        0
Se       1.65831050       0.95742601       7.50000000        0
Se       0.00000000       3.82970405       7.50000000        0
Se       3.31662100       3.82970405       7.50000000        0
Se       1.65831050       6.70198209       7.50000000        0
Se       0.00000000       9.57426013       7.50000000        0
Se       6.63324199       3.82970405       7.50000000        0
Se       4.97493149       6.70198209       7.50000000        0
Se       3.31662100       9.57426013       7.50000000        0
Se       8.29155249       6.70198209       7.50000000        0
Se       6.63324199       9.57426013       7.50000000        0
Se       4.97493149      12.44653816       7.50000000        0
Se       8.29155249      12.44653816       7.50000000        0
