42
Lattice="7.960166161711482 2.757482445754964 0.0 1.5920332323422963 8.272447337264893 0.0 0.0 0.0 24.229325292703038" Properties=species:S:1:pos:R:3:tags:I:1 pbc="T T F"
Mo       9.55219939      11.02992978      15.16576897        1
Mo       2.04689987       5.12103883      15.16576897        1
Mo       4.54866638       7.09066915      15.16576897        1
Mo       7.05043289       9.06029946      15.16576897        1
Mo       5.00353302       3.93926064      15.16576897        1
Mo       7.50529952       5.90889096      15.16576897        1
S        2.72919983       6.82805177      16.72932529        1
S        5.23096633       8.79768209      16.72932529        1
S        3.18406646       3.67664326      16.72932529        1
S        5.68583297       5.64627358      16.72932529        1
S        8.18759948       7.61590390      16.72932529        1
S        2.72919983       6.82805177      13.60221265        1
S        5.23096633       8.79768209      13.60221265        1
S        3.18406646       3.67664326      13.60221265        1
S        5.68583297       5.64627358      13.60221265        1
S        8.18759948       7.61590390      13.60221265        1
Mo       2.50176651       1.96963032      15.16576897        1
S        0.68229996       1.70701294      16.72932529        1
S        6.14069961       2.49486507      16.72932529        1
S        0.68229996       1.70701294      13.60221265        1
S        6.14069961       2.49486507      13.60221265        1
Mo       0.00000000       0.00000000       9.06355632        0
Mo       1.59203323       2.75748245       9.06355632        0
Mo       4.77609970       2.75748245       9.06355632        0
Mo       3.18406646       5.51496489       9.06355632        0
Mo       6.36813293       5.51496489       9.06355632        0
Mo       4.77609970       8.27244734       9.06355632        0
S        1.59203323       0.91916082      10.62711265        0
S        3.18406646       3.67664326      10.62711265        0
S        1.59203323       6.43412571      10.62711265        0
S        6.36813293       3.67664326      10.62711265        0
S        4.77609970       6.43412571      10.62711265        0
S        6.36813293       9.19160815      10.62711265        0
S        1.59203323       0.91916082       7.50000000        0
S        3.18406646       3.67664326       7.50000000        0
S        1.59203323       6.43412571       7.50000000        0
S        6.36813293       3.67664326       7.50000000        0
S        4.77609970       6.43412571       7.50000000        0
S        6.36813293       9.19160815       7.50000000        0
Mo       7.96016616       8.27244734       9.06355632        0
S        7.96016616       6.43412571      10.62711265        0
S        7.96016616       6.43412571       7.50000000        0
