6
Lattice="3.1840664646845926 0.0 0.0 -1.5920332323422963 2.757482445754964 0.0 0.0 0.0 24.229325292703038" Properties=species:S:1:pos:R:3 layerlevels="_JSON [1, 1, 1, 0, 0, 0]" strain=0.0 pbc="T T F"
Mo      -1.59203323       2.75748245      15.16576897
S        1.59203323       0.91916082      16.72932529
S        1.59203323       0.91916082      13.60221265
Mo      -1.59203323       2.75748245       9.06355632
S        1.59203323       0.91916082      10.62711265
S        1.59203323       0.91916082       7.50000000
