SLAB
PRIMVEC
 3.18406646468459 0.00000000000000 0.00000000000000
 -1.59203323234230 2.75748244575496 0.00000000000000
 0.00000000000000 0.00000000000000 24.22932529270304
PRIMCOORD
 6 1
 42    -1.59203323234230     2.75748244575496    15.16576896952728
 16     1.59203323234230     0.91916081525165    16.72932529270304
 16     1.59203323234230     0.91916081525165    13.60221264635152
 42    -1.59203323234230     2.75748244575496     9.06355632317576
 16     1.59203323234230     0.91916081525165    10.62711264635152
 16     1.59203323234230     0.91916081525165     7.50000000000000
