SLAB
PRIMVEC
 3.31974878785767 0.00000000000000 0.00000000000000
 -1.65987439392883 2.87498678446734 0.00000000000000
 0.00000000000000 -0.00000000000000 24.80441790705282
PRIMCOORD
 6 1
 42    -1.65987439392883     2.87498678446734    15.63538843028962
 34     1.65987439392883     0.95832892815578    17.30441790705282
 34     1.65987439392883     0.95832892815578    13.96635895352641
 42    -1.65987439392883     2.87498678446734     9.16902947676321
 34     1.65987439392883     0.95832892815578    10.83805895352641
 34     1.65987439392883     0.95832892815578     7.50000000000000
